[General]
network = simulations.OrchestratorNetwork
sim-time-limit = 4000s
*.port = 9999