[General]
network = simulations.OrchestratorNetwork
sim-time-limit = 40s
*.port = 9999